
 OpenBabel02042214453D

 11 10  0  0  0  0  0  0  0  0999 V2000
    2.3026    0.9190   -0.2302 C   0  0  0  0  0  0  0  0  0  0  0  0
    3.6127    0.9375    0.5544 C   0  0  0  0  0  0  0  0  0  0  0  0
    2.4134    1.4734   -1.1866 H   0  0  0  0  0  0  0  0  0  0  0  0
    1.4981    1.3957    0.3687 H   0  0  0  0  0  0  0  0  0  0  0  0
    2.0023   -0.1274   -0.4518 H   0  0  0  0  0  0  0  0  0  0  0  0
    4.7371    0.2733   -0.2373 C   0  0  0  0  0  0  0  0  0  0  0  0
    5.6754    0.2880    0.3564 H   0  0  0  0  0  0  0  0  0  0  0  0
    4.9102    0.8110   -1.1940 H   0  0  0  0  0  0  0  0  0  0  0  0
    4.4782   -0.7841   -0.4589 H   0  0  0  0  0  0  0  0  0  0  0  0
    4.1001    2.7707    0.9679 Br  0  0  0  0  0  0  0  0  0  0  0  0
    3.4697    0.3879    1.5098 H   0  0  0  0  0  0  0  0  0  0  0  0
  1  3  1  0  0  0  0
  1  4  1  0  0  0  0
  1  5  1  0  0  0  0
  2  1  1  0  0  0  0
  2  6  1  0  0  0  0
  2 11  1  0  0  0  0
  6  7  1  0  0  0  0
  6  8  1  0  0  0  0
  6  9  1  0  0  0  0
 10  2  1  0  0  0  0
M  END
$$$$
