*****
  Mrv15b2302072205072D          

  4  3  0  0  0  0            999 V2000
    2.3902    1.3781    0.0000 C   0  0  0  0  0  0  0  0  0  0  0  0
    1.9777    0.6636    0.0000 C   0  0  0  0  0  0  0  0  0  0  0  0
    2.3902   -0.0509    0.0000 C   0  0  0  0  0  0  0  0  0  0  0  0
    1.1527    0.6636    0.0000 C   0  0  0  0  0  0  0  0  0  0  0  0
  2  1  1  0  0  0  0
  2  3  1  0  0  0  0
  4  2  1  0  0  0  0
M  END
