@<TRIPOS>MOLECULE
*****
 14 13 0 0 0
SMALL
GASTEIGER

@<TRIPOS>ATOM
      1 C           2.3274    1.0109   -0.1982 C.3     1  UNL1       -0.0629
      2 C           3.6461    1.0632    0.5813 C.3     1  UNL1       -0.0496
      3 H           2.4244    1.5372   -1.1723 H       1  UNL1        0.0232
      4 H           1.5161    1.4918    0.3889 H       1  UNL1        0.0232
      5 H           2.0371   -0.0443   -0.3893 H       1  UNL1        0.0232
      6 C           4.7612    0.3654   -0.2053 C.3     1  UNL1       -0.0629
      7 H           5.7075    0.3802    0.3765 H       1  UNL1        0.0232
      8 H           4.9325    0.8720   -1.1796 H       1  UNL1        0.0232
      9 H           4.4895   -0.6947   -0.3965 H       1  UNL1        0.0232
     10 C           4.0321    2.5155    0.8836 C.3     1  UNL1       -0.0629
     11 H           3.5068    0.5274    1.5461 H       1  UNL1        0.0293
     12 H           4.1811    3.0876   -0.0576 H       1  UNL1        0.0232
     13 H           4.9729    2.5469    1.4737 H       1  UNL1        0.0232
     14 H           3.2339    3.0081    1.4788 H       1  UNL1        0.0232
@<TRIPOS>BOND
     1     1     3    1
     2     1     4    1
     3     1     5    1
     4     2     1    1
     5     2     6    1
     6     2    11    1
     7     6     7    1
     8     6     8    1
     9     6     9    1
    10    10     2    1
    11    10    12    1
    12    10    13    1
    13    10    14    1
