@<TRIPOS>MOLECULE
*****
 11 10 0 0 0
SMALL
GASTEIGER

@<TRIPOS>ATOM
      1 C           2.3026    0.9190   -0.2302 C.3     1  UNL1       -0.0530
      2 C           3.6127    0.9375    0.5544 C.3     1  UNL1        0.0093
      3 H           2.4134    1.4734   -1.1866 H       1  UNL1        0.0240
      4 H           1.4981    1.3957    0.3687 H       1  UNL1        0.0240
      5 H           2.0023   -0.1274   -0.4518 H       1  UNL1        0.0240
      6 C           4.7371    0.2733   -0.2373 C.3     1  UNL1       -0.0530
      7 H           5.6754    0.2880    0.3564 H       1  UNL1        0.0240
      8 H           4.9102    0.8110   -1.1940 H       1  UNL1        0.0240
      9 H           4.4782   -0.7841   -0.4589 H       1  UNL1        0.0240
     10 BR          4.1001    2.7707    0.9679 Br      1  UNL1       -0.0886
     11 H           3.4697    0.3879    1.5098 H       1  UNL1        0.0412
@<TRIPOS>BOND
     1     1     3    1
     2     1     4    1
     3     1     5    1
     4     2     1    1
     5     2     6    1
     6     2    11    1
     7     6     7    1
     8     6     8    1
     9     6     9    1
    10    10     2    1
