*****
  Mrv15b2302072205062D          

  4  3  0  0  0  0            999 V2000
    2.3883    1.3708    0.0000 C   0  0  0  0  0  0  0  0  0  0  0  0
    1.9758    0.6563    0.0000 C   0  0  0  0  0  0  0  0  0  0  0  0
    2.3883   -0.0582    0.0000 C   0  0  0  0  0  0  0  0  0  0  0  0
    1.1508    0.6563    0.0000 Br  0  0  0  0  0  0  0  0  0  0  0  0
  2  1  1  0  0  0  0
  2  3  1  0  0  0  0
  4  2  1  0  0  0  0
M  END
